Circuit: * C:\Users\Chris\Dropbox\ContextualElectronics\projects\BenchBuddy\SPICE\CurrentSource.asc

WARNING: Less than two connections to node 5V.  This node is used by V4.
Direct Newton iteration for .op point succeeded.

Date: Wed Apr 16 22:58:23 2014
Total elapsed time: 2.615 seconds.

tnom = 27
temp = 27
method = modified trap
totiter = 78728
traniter = 78684
tranpoints = 23223
accept = 16728
rejected = 6495
matrix size = 33
fillins = 24
solver = Normal
Matrix Compiler1: 2.67 KB object code size  1.2/0.9/[0.3]
Matrix Compiler2: off  [0.5]/1.2/4.9


